Info: SIMULATION PARAMETERS:
Info: TIMESTEP               2
Info: NUMBER OF STEPS        0
Info: STEPS PER CYCLE        10
Info: PERIODIC CELL BASIS 1  100 0 0
Info: PERIODIC CELL BASIS 2  0 100 0
Info: PERIODIC CELL BASIS 3  0 0 100
Info: PERIODIC CELL CENTER   0 0 0
Info: WRAPPING WATERS AROUND PERIODIC BOUNDARIES ON OUTPUT.
Info: WRAPPING ALL CLUSTERS AROUND PERIODIC BOUNDARIES ON OUTPUT.
Info: FIRST LDB TIMESTEP     50
Info: LAST LDB TIMESTEP     -1
Info: HOM BACKGROUND SCALING 1
Info: PME BACKGROUND SCALING 1
Info: MIN ATOMS PER PATCH    40
Info: INITIAL TEMPERATURE    1000
Info: CENTER OF MASS MOVING INITIALLY? NO
Info: REMOVING CENTER OF MASS DRIFT DURING SIMULATION
Info: DIELECTRIC             1
Info: EXCLUDE                SCALED ONE-FOUR
Info: 1-4 ELECTROSTATICS SCALED BY 1
Info: MODIFIED 1-4 VDW PARAMETERS WILL BE USED
Info: DCD FILENAME           MD1000K.dcd
Info: DCD FREQUENCY          500
Info: DCD FIRST STEP         500
Info: DCD FILE WILL CONTAIN UNIT CELL DATA
Info: XST FILENAME           MD1000K.xst
Info: XST FREQUENCY          500
Info: NO VELOCITY DCD OUTPUT
Info: NO FORCE DCD OUTPUT
Info: OUTPUT FILENAME        MD1000K
Info: BINARY OUTPUT FILES WILL BE USED
Info: RESTART FILENAME       MD1000K.restart
Info: RESTART FREQUENCY      5000
Info: BINARY RESTART FILES WILL BE USED
Info: SWITCHING ACTIVE
Info: SWITCHING ON           10
Info: SWITCHING OFF          12
Info: PAIRLIST DISTANCE      14
Info: PAIRLIST SHRINK RATE   0.01
Info: PAIRLIST GROW RATE     0.01
Info: PAIRLIST TRIGGER       0.3
Info: PAIRLISTS PER CYCLE    2
Info: PAIRLISTS ENABLED
Info: MARGIN                 0
Info: HYDROGEN GROUP CUTOFF  2.5
Info: PATCH DIMENSION        16.5
Info: ENERGY OUTPUT STEPS    500
Info: CROSSTERM ENERGY INCLUDED IN DIHEDRAL
Info: TIMING OUTPUT STEPS    5000
Info: PRESSURE OUTPUT STEPS  500
Info: LANGEVIN DYNAMICS ACTIVE
Info: LANGEVIN TEMPERATURE   1000
Info: LANGEVIN USING BBK INTEGRATOR
Info: LANGEVIN DAMPING COEFFICIENT IS 1 INVERSE PS
Info: LANGEVIN DYNAMICS NOT APPLIED TO HYDROGENS
Info: PARTICLE MESH EWALD (PME) ACTIVE
Info: PME TOLERANCE               1e-06
Info: PME EWALD COEFFICIENT       0.257952
Info: PME INTERPOLATION ORDER     4
Info: PME GRID DIMENSIONS         108 108 108
Info: PME MAXIMUM GRID SPACING    1
Info: FULL ELECTROSTATIC EVALUATION FREQUENCY      2
Info: USING VERLET I (r-RESPA) MTS SCHEME.
Info: C1 SPLITTING OF LONG RANGE ELECTROSTATICS
Info: PLACING ATOMS IN PATCHES BY HYDROGEN GROUPS
Info: RIGID BONDS TO HYDROGEN : ALL
Info:         ERROR TOLERANCE : 1e-08
Info:          MAX ITERATIONS : 100
Info: RIGID WATER USING SETTLE ALGORITHM
Info: RANDOM NUMBER SEED     1715363317
Info: USE HYDROGEN BONDS?    NO
Info: COORDINATE PDB         ../input/SiO2.pdb
Info: STRUCTURE FILE         ../input/SiO2.psf
Info: PARAMETER file: CHARMM format!
Info: PARAMETERS             ../input/SiO2.par
Info: USING ARITHMETIC MEAN TO COMBINE L-J SIGMA PARAMETERS
Info: SUMMARY OF PARAMETERS:
Info: 1 BONDS
Info: 0 ANGLES
Info: 0 DIHEDRAL
Info: 0 IMPROPER
Info: 0 CROSSTERM
Info: 2 VDW
Info: 0 VDW_PAIRS
Info: 0 NBTHOLE_PAIRS
Info: STRUCTURE SUMMARY:
Info: 768 ATOMS
Info: 0 BONDS
Info: 0 ANGLES
Info: 0 DIHEDRALS
Info: 0 IMPROPERS
Info: 0 CROSSTERMS
Info: 0 EXCLUSIONS
Info: 0 RIGID BONDS
Info: 2304 DEGREES OF FREEDOM
Info: 768 HYDROGEN GROUPS
Info: 1 ATOMS IN LARGEST HYDROGEN GROUP
Info: 768 MIGRATION GROUPS
Info: 1 ATOMS IN LARGEST MIGRATION GROUP
Info: TOTAL MASS = 15381.6 amu
Info: TOTAL CHARGE = 0 e
Info: MASS DENSITY = 0.0255423 g/cm^3
Info: ATOM DENSITY = 0.000768 atoms/A^3
Info: ADDED 0 IMPLICIT EXCLUSIONS
Info: NONBONDED TABLE R-SQUARED SPACING: 0.0625
Info: NONBONDED TABLE SIZE: 769 POINTS
Info: REMOVING COM VELOCITY 0.415903 0.361091 -0.0725878
TCL: Minimizing for 1000 steps
ETITLE: TS BOND ANGLE DIHED IMPRP ELECT VDW BOUNDARY MISC KINETIC TOTAL TEMP POTENTIAL TOTAL3 TEMPAVG PRESSURE GPRESSURE VOLUME PRESSAVG GPRESSAVG
ENERGY: 0 0.0000 0.0000 0.0000 0.0000 -53892.4609 1661603.6966 0.0000 0.0000 0.0000 1607711.2357 0.0000 1607711.2357 1607711.2357 0.0000 463502.6809 463502.6809 1000000.0000 463502.6809 463502.6809
ENERGY: 200 0.0000 0.0000 0.0000 0.0000 -34343.9749 2884.3202 0.0000 0.0000 0.0000 -31459.6547 0.0000 -31459.6547 -31459.6547 0.0000 265.0973 265.0973 1000000.0000 265.0973 265.0973
ENERGY: 400 0.0000 0.0000 0.0000 0.0000 -35376.0324 2128.8575 0.0000 0.0000 0.0000 -33247.1749 0.0000 -33247.1749 -33247.1749 0.0000 -6.8628 -6.8628 1000000.0000 -6.8628 -6.8628
ENERGY: 600 0.0000 0.0000 0.0000 0.0000 -35826.5985 2168.6004 0.0000 0.0000 0.0000 -33657.9981 0.0000 -33657.9981 -33657.9981 0.0000 -2.8491 -2.8491 1000000.0000 -2.8491 -2.8491
ENERGY: 800 0.0000 0.0000 0.0000 0.0000 -35984.5727 2168.1918 0.0000 0.0000 0.0000 -33816.3809 0.0000 -33816.3809 -33816.3809 0.0000 -4.2164 -4.2164 1000000.0000 -4.2164 -4.2164
ENERGY: 1000 0.0000 0.0000 0.0000 0.0000 -36018.5244 2172.9267 0.0000 0.0000 0.0000 -33845.5977 0.0000 -33845.5977 -33845.5977 0.0000 -2.9860 -2.9860 1000000.0000 -2.9860 -2.9860
TCL: Running for 500000 steps
ETITLE: TS BOND ANGLE DIHED IMPRP ELECT VDW BOUNDARY MISC KINETIC TOTAL TEMP POTENTIAL TOTAL3 TEMPAVG PRESSURE GPRESSURE VOLUME PRESSAVG GPRESSAVG
ENERGY: 1000 0.0000 0.0000 0.0000 0.0000 -36018.5244 2172.9267 0.0000 0.0000 0.0000 -33845.5977 0.0000 -33845.5977 -33845.6098 0.0000 -2.9854 -2.9854 1000000.0000 -2.9854 -2.9854
ENERGY: 101000 0.0000 0.0000 0.0000 0.0000 -31361.4785 1719.6321 0.0000 0.0000 2353.7692 -27288.0772 1028.1862 -29641.8464 -27287.3516 1032.8400 -13.6454 -13.6454 1000000.0000 -0.4605 -0.4605
ENERGY: 201000 0.0000 0.0000 0.0000 0.0000 -31396.7639 1916.4803 0.0000 0.0000 2317.4494 -27162.8342 1012.3208 -29480.2836 -27163.3973 1034.8718 40.6803 40.6803 1000000.0000 -3.3913 -3.3913
ENERGY: 301000 0.0000 0.0000 0.0000 0.0000 -31494.4837 1783.5287 0.0000 0.0000 2243.6190 -27467.3360 980.0698 -29710.9550 -27467.8595 984.3104 -1.5765 -1.5765 1000000.0000 5.7610 5.7610
ENERGY: 401000 0.0000 0.0000 0.0000 0.0000 -31672.9701 1697.1044 0.0000 0.0000 2304.0370 -27671.8287 1006.4620 -29975.8657 -27671.9157 983.4939 -26.8537 -26.8537 1000000.0000 -1.6684 -1.6684
ENERGY: 501000 0.0000 0.0000 0.0000 0.0000 -31565.0304 1748.5090 0.0000 0.0000 2163.0479 -27653.4736 944.8743 -29816.5214 -27649.7407 975.6126 -16.0542 -16.0542 1000000.0000 2.7736 2.7736
