Info: SIMULATION PARAMETERS:
Info: TIMESTEP               2
Info: NUMBER OF STEPS        0
Info: STEPS PER CYCLE        10
Info: PERIODIC CELL BASIS 1  100 0 0
Info: PERIODIC CELL BASIS 2  0 100 0
Info: PERIODIC CELL BASIS 3  0 0 100
Info: PERIODIC CELL CENTER   0 0 0
Info: WRAPPING WATERS AROUND PERIODIC BOUNDARIES ON OUTPUT.
Info: WRAPPING ALL CLUSTERS AROUND PERIODIC BOUNDARIES ON OUTPUT.
Info: FIRST LDB TIMESTEP     50
Info: LAST LDB TIMESTEP     -1
Info: HOM BACKGROUND SCALING 1
Info: PME BACKGROUND SCALING 1
Info: MIN ATOMS PER PATCH    40
Info: INITIAL TEMPERATURE    300
Info: CENTER OF MASS MOVING INITIALLY? NO
Info: REMOVING CENTER OF MASS DRIFT DURING SIMULATION
Info: DIELECTRIC             1
Info: EXCLUDE                SCALED ONE-FOUR
Info: 1-4 ELECTROSTATICS SCALED BY 1
Info: MODIFIED 1-4 VDW PARAMETERS WILL BE USED
Info: DCD FILENAME           MD300K.dcd
Info: DCD FREQUENCY          500
Info: DCD FIRST STEP         500
Info: DCD FILE WILL CONTAIN UNIT CELL DATA
Info: XST FILENAME           MD300K.xst
Info: XST FREQUENCY          500
Info: NO VELOCITY DCD OUTPUT
Info: NO FORCE DCD OUTPUT
Info: OUTPUT FILENAME        MD300K
Info: BINARY OUTPUT FILES WILL BE USED
Info: RESTART FILENAME       MD300K.restart
Info: RESTART FREQUENCY      5000
Info: BINARY RESTART FILES WILL BE USED
Info: SWITCHING ACTIVE
Info: SWITCHING ON           10
Info: SWITCHING OFF          12
Info: PAIRLIST DISTANCE      14
Info: PAIRLIST SHRINK RATE   0.01
Info: PAIRLIST GROW RATE     0.01
Info: PAIRLIST TRIGGER       0.3
Info: PAIRLISTS PER CYCLE    2
Info: PAIRLISTS ENABLED
Info: MARGIN                 0
Info: HYDROGEN GROUP CUTOFF  2.5
Info: PATCH DIMENSION        16.5
Info: ENERGY OUTPUT STEPS    500
Info: CROSSTERM ENERGY INCLUDED IN DIHEDRAL
Info: TIMING OUTPUT STEPS    5000
Info: PRESSURE OUTPUT STEPS  500
Info: LANGEVIN DYNAMICS ACTIVE
Info: LANGEVIN TEMPERATURE   300
Info: LANGEVIN USING BBK INTEGRATOR
Info: LANGEVIN DAMPING COEFFICIENT IS 1 INVERSE PS
Info: LANGEVIN DYNAMICS NOT APPLIED TO HYDROGENS
Info: PARTICLE MESH EWALD (PME) ACTIVE
Info: PME TOLERANCE               1e-06
Info: PME EWALD COEFFICIENT       0.257952
Info: PME INTERPOLATION ORDER     4
Info: PME GRID DIMENSIONS         108 108 108
Info: PME MAXIMUM GRID SPACING    1
Info: FULL ELECTROSTATIC EVALUATION FREQUENCY      2
Info: USING VERLET I (r-RESPA) MTS SCHEME.
Info: C1 SPLITTING OF LONG RANGE ELECTROSTATICS
Info: PLACING ATOMS IN PATCHES BY HYDROGEN GROUPS
Info: RIGID BONDS TO HYDROGEN : ALL
Info:         ERROR TOLERANCE : 1e-08
Info:          MAX ITERATIONS : 100
Info: RIGID WATER USING SETTLE ALGORITHM
Info: RANDOM NUMBER SEED     1715356778
Info: USE HYDROGEN BONDS?    NO
Info: COORDINATE PDB         ../input/SiO2.pdb
Info: STRUCTURE FILE         ../input/SiO2.psf
Info: PARAMETER file: CHARMM format!
Info: PARAMETERS             ../SiO2.par
Info: USING ARITHMETIC MEAN TO COMBINE L-J SIGMA PARAMETERS
Info: SUMMARY OF PARAMETERS:
Info: 1 BONDS
Info: 0 ANGLES
Info: 0 DIHEDRAL
Info: 0 IMPROPER
Info: 0 CROSSTERM
Info: 2 VDW
Info: 0 VDW_PAIRS
Info: 0 NBTHOLE_PAIRS
Info: STRUCTURE SUMMARY:
Info: 768 ATOMS
Info: 0 BONDS
Info: 0 ANGLES
Info: 0 DIHEDRALS
Info: 0 IMPROPERS
Info: 0 CROSSTERMS
Info: 0 EXCLUSIONS
Info: 0 RIGID BONDS
Info: 2304 DEGREES OF FREEDOM
Info: 768 HYDROGEN GROUPS
Info: 1 ATOMS IN LARGEST HYDROGEN GROUP
Info: 768 MIGRATION GROUPS
Info: 1 ATOMS IN LARGEST MIGRATION GROUP
Info: TOTAL MASS = 15381.6 amu
Info: TOTAL CHARGE = 0 e
Info: MASS DENSITY = 0.0255423 g/cm^3
Info: ATOM DENSITY = 0.000768 atoms/A^3
Info: ADDED 0 IMPLICIT EXCLUSIONS
Info: NONBONDED TABLE R-SQUARED SPACING: 0.0625
Info: NONBONDED TABLE SIZE: 769 POINTS
Info: REMOVING COM VELOCITY 0.0271631 0.0254527 -0.0991474
TCL: Minimizing for 1000 steps
ETITLE: TS BOND ANGLE DIHED IMPRP ELECT VDW BOUNDARY MISC KINETIC TOTAL TEMP POTENTIAL TOTAL3 TEMPAVG PRESSURE GPRESSURE VOLUME PRESSAVG GPRESSAVG
ENERGY: 0 0.0000 0.0000 0.0000 0.0000 -53892.4609 8195197.1049 0.0000 0.0000 0.0000 8141304.6440 0.0000 8141304.6440 8141304.6440 0.0000 2289146.1355 2289146.1355 1000000.0000 2289146.1355 2289146.1355
ENERGY: 200 0.0000 0.0000 0.0000 0.0000 -29102.8037 2609.8065 0.0000 0.0000 0.0000 -26492.9972 0.0000 -26492.9972 -26492.9972 0.0000 738.0437 738.0437 1000000.0000 738.0437 738.0437
ENERGY: 400 0.0000 0.0000 0.0000 0.0000 -31202.7843 1029.5684 0.0000 0.0000 0.0000 -30173.2158 0.0000 -30173.2158 -30173.2158 0.0000 62.3984 62.3984 1000000.0000 62.3984 62.3984
ENERGY: 600 0.0000 0.0000 0.0000 0.0000 -31626.7451 934.2051 0.0000 0.0000 0.0000 -30692.5400 0.0000 -30692.5400 -30692.5400 0.0000 13.7684 13.7684 1000000.0000 13.7684 13.7684
ENERGY: 800 0.0000 0.0000 0.0000 0.0000 -31777.8694 885.4458 0.0000 0.0000 0.0000 -30892.4236 0.0000 -30892.4236 -30892.4236 0.0000 -5.1727 -5.1727 1000000.0000 -5.1727 -5.1727
ENERGY: 1000 0.0000 0.0000 0.0000 0.0000 -31833.9176 874.3831 0.0000 0.0000 0.0000 -30959.5345 0.0000 -30959.5345 -30959.5345 0.0000 -5.4398 -5.4398 1000000.0000 -5.4398 -5.4398
TCL: Running for 500000 steps
ETITLE: TS BOND ANGLE DIHED IMPRP ELECT VDW BOUNDARY MISC KINETIC TOTAL TEMP POTENTIAL TOTAL3 TEMPAVG PRESSURE GPRESSURE VOLUME PRESSAVG GPRESSAVG
ENERGY: 1000 0.0000 0.0000 0.0000 0.0000 -31833.9176 874.3831 0.0000 0.0000 0.0000 -30959.5345 0.0000 -30959.5345 -30959.5451 0.0000 -5.4393 -5.4393 1000000.0000 -5.4393 -5.4393
ENERGY: 101000 0.0000 0.0000 0.0000 0.0000 -31410.8233 824.0940 0.0000 0.0000 662.0741 -29924.6552 289.2108 -30586.7293 -29923.9690 297.3978 -6.9715 -6.9715 1000000.0000 -2.1446 -2.1446
ENERGY: 201000 0.0000 0.0000 0.0000 0.0000 -31429.9765 850.5716 0.0000 0.0000 668.1848 -29911.2200 291.8801 -30579.4048 -29912.3987 293.1933 0.1647 0.1647 1000000.0000 2.4530 2.4530
ENERGY: 301000 0.0000 0.0000 0.0000 0.0000 -31465.2333 834.9245 0.0000 0.0000 720.0107 -29910.2982 314.5190 -30630.3089 -29907.8447 305.6804 4.1811 4.1811 1000000.0000 0.0188 0.0188
ENERGY: 401000 0.0000 0.0000 0.0000 0.0000 -31339.7909 809.7052 0.0000 0.0000 679.4665 -29850.6192 296.8082 -30530.0857 -29850.4763 305.9372 -10.7530 -10.7530 1000000.0000 0.7036 0.7036
ENERGY: 501000 0.0000 0.0000 0.0000 0.0000 -31422.8936 784.9532 0.0000 0.0000 689.9362 -29948.0041 301.3817 -30637.9404 -29947.1433 295.1323 -13.5184 -13.5184 1000000.0000 1.8079 1.8079
