Info: SIMULATION PARAMETERS:
Info: TIMESTEP               2
Info: NUMBER OF STEPS        0
Info: STEPS PER CYCLE        10
Info: PERIODIC CELL BASIS 1  100 0 0
Info: PERIODIC CELL BASIS 2  0 100 0
Info: PERIODIC CELL BASIS 3  0 0 100
Info: PERIODIC CELL CENTER   0 0 0
Info: WRAPPING WATERS AROUND PERIODIC BOUNDARIES ON OUTPUT.
Info: WRAPPING ALL CLUSTERS AROUND PERIODIC BOUNDARIES ON OUTPUT.
Info: FIRST LDB TIMESTEP     50
Info: LAST LDB TIMESTEP     -1
Info: HOM BACKGROUND SCALING 1
Info: PME BACKGROUND SCALING 1
Info: MIN ATOMS PER PATCH    40
Info: INITIAL TEMPERATURE    1500
Info: CENTER OF MASS MOVING INITIALLY? NO
Info: REMOVING CENTER OF MASS DRIFT DURING SIMULATION
Info: DIELECTRIC             1
Info: EXCLUDE                SCALED ONE-FOUR
Info: 1-4 ELECTROSTATICS SCALED BY 1
Info: MODIFIED 1-4 VDW PARAMETERS WILL BE USED
Info: DCD FILENAME           MD1500K.dcd
Info: DCD FREQUENCY          500
Info: DCD FIRST STEP         500
Info: DCD FILE WILL CONTAIN UNIT CELL DATA
Info: XST FILENAME           MD1500K.xst
Info: XST FREQUENCY          500
Info: NO VELOCITY DCD OUTPUT
Info: NO FORCE DCD OUTPUT
Info: OUTPUT FILENAME        MD1500K
Info: BINARY OUTPUT FILES WILL BE USED
Info: RESTART FILENAME       MD1500K.restart
Info: RESTART FREQUENCY      5000
Info: BINARY RESTART FILES WILL BE USED
Info: SWITCHING ACTIVE
Info: SWITCHING ON           10
Info: SWITCHING OFF          12
Info: PAIRLIST DISTANCE      14
Info: PAIRLIST SHRINK RATE   0.01
Info: PAIRLIST GROW RATE     0.01
Info: PAIRLIST TRIGGER       0.3
Info: PAIRLISTS PER CYCLE    2
Info: PAIRLISTS ENABLED
Info: MARGIN                 0
Info: HYDROGEN GROUP CUTOFF  2.5
Info: PATCH DIMENSION        16.5
Info: ENERGY OUTPUT STEPS    500
Info: CROSSTERM ENERGY INCLUDED IN DIHEDRAL
Info: TIMING OUTPUT STEPS    5000
Info: PRESSURE OUTPUT STEPS  500
Info: LANGEVIN DYNAMICS ACTIVE
Info: LANGEVIN TEMPERATURE   1500
Info: LANGEVIN USING BBK INTEGRATOR
Info: LANGEVIN DAMPING COEFFICIENT IS 1 INVERSE PS
Info: LANGEVIN DYNAMICS NOT APPLIED TO HYDROGENS
Info: PARTICLE MESH EWALD (PME) ACTIVE
Info: PME TOLERANCE               1e-06
Info: PME EWALD COEFFICIENT       0.257952
Info: PME INTERPOLATION ORDER     4
Info: PME GRID DIMENSIONS         108 108 108
Info: PME MAXIMUM GRID SPACING    1
Info: FULL ELECTROSTATIC EVALUATION FREQUENCY      2
Info: USING VERLET I (r-RESPA) MTS SCHEME.
Info: C1 SPLITTING OF LONG RANGE ELECTROSTATICS
Info: PLACING ATOMS IN PATCHES BY HYDROGEN GROUPS
Info: RIGID BONDS TO HYDROGEN : ALL
Info:         ERROR TOLERANCE : 1e-08
Info:          MAX ITERATIONS : 100
Info: RIGID WATER USING SETTLE ALGORITHM
Info: RANDOM NUMBER SEED     1715358432
Info: USE HYDROGEN BONDS?    NO
Info: COORDINATE PDB         ../input/SiO2.pdb
Info: STRUCTURE FILE         ../input/SiO2.psf
Info: PARAMETER file: CHARMM format!
Info: PARAMETERS             ../input/SiO2.par
Info: USING ARITHMETIC MEAN TO COMBINE L-J SIGMA PARAMETERS
Info: SUMMARY OF PARAMETERS:
Info: 1 BONDS
Info: 0 ANGLES
Info: 0 DIHEDRAL
Info: 0 IMPROPER
Info: 0 CROSSTERM
Info: 2 VDW
Info: 0 VDW_PAIRS
Info: 0 NBTHOLE_PAIRS
Info: STRUCTURE SUMMARY:
Info: 768 ATOMS
Info: 0 BONDS
Info: 0 ANGLES
Info: 0 DIHEDRALS
Info: 0 IMPROPERS
Info: 0 CROSSTERMS
Info: 0 EXCLUSIONS
Info: 0 RIGID BONDS
Info: 2304 DEGREES OF FREEDOM
Info: 768 HYDROGEN GROUPS
Info: 1 ATOMS IN LARGEST HYDROGEN GROUP
Info: 768 MIGRATION GROUPS
Info: 1 ATOMS IN LARGEST MIGRATION GROUP
Info: TOTAL MASS = 15381.6 amu
Info: TOTAL CHARGE = 0 e
Info: MASS DENSITY = 0.0255423 g/cm^3
Info: ATOM DENSITY = 0.000768 atoms/A^3
Info: ADDED 0 IMPLICIT EXCLUSIONS
Info: NONBONDED TABLE R-SQUARED SPACING: 0.0625
Info: NONBONDED TABLE SIZE: 769 POINTS
Info: REMOVING COM VELOCITY -0.048266 -0.207178 0.25471
TCL: Minimizing for 1000 steps
ETITLE: TS BOND ANGLE DIHED IMPRP ELECT VDW BOUNDARY MISC KINETIC TOTAL TEMP POTENTIAL TOTAL3 TEMPAVG PRESSURE GPRESSURE VOLUME PRESSAVG GPRESSAVG
ENERGY: 0 0.0000 0.0000 0.0000 0.0000 -53892.4609 8195197.1049 0.0000 0.0000 0.0000 8141304.6440 0.0000 8141304.6440 8141304.6440 0.0000 2289146.1355 2289146.1355 1000000.0000 2289146.1355 2289146.1355
ENERGY: 200 0.0000 0.0000 0.0000 0.0000 -29102.7710 2609.8456 0.0000 0.0000 0.0000 -26492.9255 0.0000 -26492.9255 -26492.9255 0.0000 738.0588 738.0588 1000000.0000 738.0588 738.0588
ENERGY: 400 0.0000 0.0000 0.0000 0.0000 -31190.3782 1057.5279 0.0000 0.0000 0.0000 -30132.8503 0.0000 -30132.8503 -30132.8503 0.0000 72.0632 72.0632 1000000.0000 72.0632 72.0632
ENERGY: 600 0.0000 0.0000 0.0000 0.0000 -31624.2905 931.5642 0.0000 0.0000 0.0000 -30692.7263 0.0000 -30692.7263 -30692.7263 0.0000 13.0564 13.0564 1000000.0000 13.0564 13.0564
ENERGY: 800 0.0000 0.0000 0.0000 0.0000 -31774.8072 882.0345 0.0000 0.0000 0.0000 -30892.7727 0.0000 -30892.7727 -30892.7727 0.0000 -6.2369 -6.2369 1000000.0000 -6.2369 -6.2369
ENERGY: 1000 0.0000 0.0000 0.0000 0.0000 -31819.5901 873.8258 0.0000 0.0000 0.0000 -30945.7643 0.0000 -30945.7643 -30945.7643 0.0000 -5.4079 -5.4079 1000000.0000 -5.4079 -5.4079
TCL: Running for 500000 steps
ETITLE: TS BOND ANGLE DIHED IMPRP ELECT VDW BOUNDARY MISC KINETIC TOTAL TEMP POTENTIAL TOTAL3 TEMPAVG PRESSURE GPRESSURE VOLUME PRESSAVG GPRESSAVG
ENERGY: 1000 0.0000 0.0000 0.0000 0.0000 -31819.5901 873.8258 0.0000 0.0000 0.0000 -30945.7643 0.0000 -30945.7643 -30945.7806 0.0000 -5.4071 -5.4071 1000000.0000 -5.4071 -5.4071
ENERGY: 101000 0.0000 0.0000 0.0000 0.0000 -22937.8236 881.0862 0.0000 0.0000 3430.6438 -18626.0935 1498.5924 -22056.7373 -18630.7019 1547.5030 -3.6926 -3.6926 1000000.0000 28.8126 28.8126
ENERGY: 201000 0.0000 0.0000 0.0000 0.0000 -23223.8000 1117.5912 0.0000 0.0000 3548.1073 -18558.1015 1549.9035 -22106.2088 -18553.2385 1529.0318 69.7723 69.7723 1000000.0000 29.3515 29.3515
ENERGY: 301000 0.0000 0.0000 0.0000 0.0000 -23059.8766 868.1334 0.0000 0.0000 3476.0840 -18715.6591 1518.4419 -22191.7431 -18707.8913 1507.1922 -5.1782 -5.1782 1000000.0000 26.2722 26.2722
ENERGY: 401000 0.0000 0.0000 0.0000 0.0000 -23306.4985 982.0599 0.0000 0.0000 3346.3860 -18978.0527 1461.7865 -22324.4386 -18970.0777 1461.9278 23.2650 23.2650 1000000.0000 25.4658 25.4658
ENERGY: 501000 0.0000 0.0000 0.0000 0.0000 -22835.8908 959.2326 0.0000 0.0000 3260.7522 -18615.9059 1424.3795 -21876.6581 -18615.8239 1477.6263 14.7010 14.7010 1000000.0000 28.0492 28.0492
