Info: SIMULATION PARAMETERS:
Info: TIMESTEP               2
Info: NUMBER OF STEPS        0
Info: STEPS PER CYCLE        10
Info: PERIODIC CELL BASIS 1  100 0 0
Info: PERIODIC CELL BASIS 2  0 100 0
Info: PERIODIC CELL BASIS 3  0 0 100
Info: PERIODIC CELL CENTER   0 0 0
Info: WRAPPING WATERS AROUND PERIODIC BOUNDARIES ON OUTPUT.
Info: WRAPPING ALL CLUSTERS AROUND PERIODIC BOUNDARIES ON OUTPUT.
Info: FIRST LDB TIMESTEP     50
Info: LAST LDB TIMESTEP     -1
Info: HOM BACKGROUND SCALING 1
Info: PME BACKGROUND SCALING 1
Info: MIN ATOMS PER PATCH    40
Info: INITIAL TEMPERATURE    300
Info: CENTER OF MASS MOVING INITIALLY? NO
Info: REMOVING CENTER OF MASS DRIFT DURING SIMULATION
Info: DIELECTRIC             1
Info: EXCLUDE                SCALED ONE-FOUR
Info: 1-4 ELECTROSTATICS SCALED BY 1
Info: MODIFIED 1-4 VDW PARAMETERS WILL BE USED
Info: DCD FILENAME           MD300K.dcd
Info: DCD FREQUENCY          500
Info: DCD FIRST STEP         500
Info: DCD FILE WILL CONTAIN UNIT CELL DATA
Info: XST FILENAME           MD300K.xst
Info: XST FREQUENCY          500
Info: NO VELOCITY DCD OUTPUT
Info: NO FORCE DCD OUTPUT
Info: OUTPUT FILENAME        MD300K
Info: BINARY OUTPUT FILES WILL BE USED
Info: RESTART FILENAME       MD300K.restart
Info: RESTART FREQUENCY      5000
Info: BINARY RESTART FILES WILL BE USED
Info: SWITCHING ACTIVE
Info: SWITCHING ON           10
Info: SWITCHING OFF          12
Info: PAIRLIST DISTANCE      14
Info: PAIRLIST SHRINK RATE   0.01
Info: PAIRLIST GROW RATE     0.01
Info: PAIRLIST TRIGGER       0.3
Info: PAIRLISTS PER CYCLE    2
Info: PAIRLISTS ENABLED
Info: MARGIN                 0
Info: HYDROGEN GROUP CUTOFF  2.5
Info: PATCH DIMENSION        16.5
Info: ENERGY OUTPUT STEPS    500
Info: CROSSTERM ENERGY INCLUDED IN DIHEDRAL
Info: TIMING OUTPUT STEPS    5000
Info: PRESSURE OUTPUT STEPS  500
Info: LANGEVIN DYNAMICS ACTIVE
Info: LANGEVIN TEMPERATURE   300
Info: LANGEVIN USING BBK INTEGRATOR
Info: LANGEVIN DAMPING COEFFICIENT IS 1 INVERSE PS
Info: LANGEVIN DYNAMICS NOT APPLIED TO HYDROGENS
Info: PARTICLE MESH EWALD (PME) ACTIVE
Info: PME TOLERANCE               1e-06
Info: PME EWALD COEFFICIENT       0.257952
Info: PME INTERPOLATION ORDER     4
Info: PME GRID DIMENSIONS         108 108 108
Info: PME MAXIMUM GRID SPACING    1
Info: FULL ELECTROSTATIC EVALUATION FREQUENCY      2
Info: USING VERLET I (r-RESPA) MTS SCHEME.
Info: C1 SPLITTING OF LONG RANGE ELECTROSTATICS
Info: PLACING ATOMS IN PATCHES BY HYDROGEN GROUPS
Info: RIGID BONDS TO HYDROGEN : ALL
Info:         ERROR TOLERANCE : 1e-08
Info:          MAX ITERATIONS : 100
Info: RIGID WATER USING SETTLE ALGORITHM
Info: RANDOM NUMBER SEED     1715360068
Info: USE HYDROGEN BONDS?    NO
Info: COORDINATE PDB         ../input/SiO2.pdb
Info: STRUCTURE FILE         ../input/SiO2.psf
Info: PARAMETER file: CHARMM format!
Info: PARAMETERS             ../input/SiO22.par
Info: USING ARITHMETIC MEAN TO COMBINE L-J SIGMA PARAMETERS
Info: SUMMARY OF PARAMETERS:
Info: 1 BONDS
Info: 0 ANGLES
Info: 0 DIHEDRAL
Info: 0 IMPROPER
Info: 0 CROSSTERM
Info: 2 VDW
Info: 0 VDW_PAIRS
Info: 0 NBTHOLE_PAIRS
Info: STRUCTURE SUMMARY:
Info: 768 ATOMS
Info: 0 BONDS
Info: 0 ANGLES
Info: 0 DIHEDRALS
Info: 0 IMPROPERS
Info: 0 CROSSTERMS
Info: 0 EXCLUSIONS
Info: 0 RIGID BONDS
Info: 2304 DEGREES OF FREEDOM
Info: 768 HYDROGEN GROUPS
Info: 1 ATOMS IN LARGEST HYDROGEN GROUP
Info: 768 MIGRATION GROUPS
Info: 1 ATOMS IN LARGEST MIGRATION GROUP
Info: TOTAL MASS = 15381.6 amu
Info: TOTAL CHARGE = 0 e
Info: MASS DENSITY = 0.0255423 g/cm^3
Info: ATOM DENSITY = 0.000768 atoms/A^3
Info: ADDED 0 IMPLICIT EXCLUSIONS
Info: NONBONDED TABLE R-SQUARED SPACING: 0.0625
Info: NONBONDED TABLE SIZE: 769 POINTS
Info: REMOVING COM VELOCITY 0.0175489 -0.0152488 -0.103692
TCL: Minimizing for 1000 steps
ETITLE: TS BOND ANGLE DIHED IMPRP ELECT VDW BOUNDARY MISC KINETIC TOTAL TEMP POTENTIAL TOTAL3 TEMPAVG PRESSURE GPRESSURE VOLUME PRESSAVG GPRESSAVG
ENERGY: 0 0.0000 0.0000 0.0000 0.0000 -53892.4609 8195197.1049 0.0000 0.0000 0.0000 8141304.6440 0.0000 8141304.6440 8141304.6440 0.0000 2289146.1355 2289146.1355 1000000.0000 2289146.1355 2289146.1355
ENERGY: 200 0.0000 0.0000 0.0000 0.0000 -29102.7988 2609.8139 0.0000 0.0000 0.0000 -26492.9849 0.0000 -26492.9849 -26492.9849 0.0000 738.0466 738.0466 1000000.0000 738.0466 738.0466
ENERGY: 400 0.0000 0.0000 0.0000 0.0000 -31202.8183 1029.8080 0.0000 0.0000 0.0000 -30173.0102 0.0000 -30173.0102 -30173.0102 0.0000 62.4819 62.4819 1000000.0000 62.4819 62.4819
ENERGY: 600 0.0000 0.0000 0.0000 0.0000 -31623.4872 930.4352 0.0000 0.0000 0.0000 -30693.0520 0.0000 -30693.0520 -30693.0520 0.0000 12.7183 12.7183 1000000.0000 12.7183 12.7183
ENERGY: 800 0.0000 0.0000 0.0000 0.0000 -31771.6042 881.7777 0.0000 0.0000 0.0000 -30889.8266 0.0000 -30889.8266 -30889.8266 0.0000 -6.4797 -6.4797 1000000.0000 -6.4797 -6.4797
ENERGY: 1000 0.0000 0.0000 0.0000 0.0000 -31829.0432 873.2240 0.0000 0.0000 0.0000 -30955.8192 0.0000 -30955.8192 -30955.8192 0.0000 -5.7138 -5.7138 1000000.0000 -5.7138 -5.7138
TCL: Running for 500000 steps
ETITLE: TS BOND ANGLE DIHED IMPRP ELECT VDW BOUNDARY MISC KINETIC TOTAL TEMP POTENTIAL TOTAL3 TEMPAVG PRESSURE GPRESSURE VOLUME PRESSAVG GPRESSAVG
ENERGY: 1000 0.0000 0.0000 0.0000 0.0000 -31829.0432 873.2240 0.0000 0.0000 0.0000 -30955.8192 0.0000 -30955.8192 -30955.8319 0.0000 -5.7132 -5.7132 1000000.0000 -5.7132 -5.7132
ENERGY: 101000 0.0000 0.0000 0.0000 0.0000 -31530.1477 914.9108 0.0000 0.0000 676.0799 -29939.1570 295.3289 -30615.2369 -29939.6144 299.1976 27.9049 27.9049 1000000.0000 1.8613 1.8613
ENERGY: 201000 0.0000 0.0000 0.0000 0.0000 -31439.5212 840.7388 0.0000 0.0000 720.3796 -29878.4027 314.6801 -30598.7823 -29878.4680 304.3006 5.2846 5.2846 1000000.0000 -0.8199 -0.8199
ENERGY: 301000 0.0000 0.0000 0.0000 0.0000 -31448.6103 920.7145 0.0000 0.0000 706.5582 -29821.3376 308.6426 -30527.8958 -29821.6888 310.0883 31.6289 31.6289 1000000.0000 -6.3111 -6.3111
ENERGY: 401000 0.0000 0.0000 0.0000 0.0000 -31406.9464 797.6885 0.0000 0.0000 691.9241 -29917.3338 302.2500 -30609.2579 -29918.3589 297.9829 -11.8653 -11.8653 1000000.0000 0.6610 0.6610
ENERGY: 501000 0.0000 0.0000 0.0000 0.0000 -31454.5093 869.6408 0.0000 0.0000 669.3597 -29915.5088 292.3933 -30584.8685 -29913.9810 300.1207 9.3513 9.3513 1000000.0000 1.4915 1.4915
