Info: SIMULATION PARAMETERS:
Info: TIMESTEP               2
Info: NUMBER OF STEPS        0
Info: STEPS PER CYCLE        10
Info: PERIODIC CELL BASIS 1  100 0 0
Info: PERIODIC CELL BASIS 2  0 100 0
Info: PERIODIC CELL BASIS 3  0 0 100
Info: PERIODIC CELL CENTER   0 0 0
Info: WRAPPING WATERS AROUND PERIODIC BOUNDARIES ON OUTPUT.
Info: WRAPPING ALL CLUSTERS AROUND PERIODIC BOUNDARIES ON OUTPUT.
Info: FIRST LDB TIMESTEP     50
Info: LAST LDB TIMESTEP     -1
Info: HOM BACKGROUND SCALING 1
Info: PME BACKGROUND SCALING 1
Info: MIN ATOMS PER PATCH    40
Info: INITIAL TEMPERATURE    250
Info: CENTER OF MASS MOVING INITIALLY? NO
Info: REMOVING CENTER OF MASS DRIFT DURING SIMULATION
Info: DIELECTRIC             1
Info: EXCLUDE                SCALED ONE-FOUR
Info: 1-4 ELECTROSTATICS SCALED BY 1
Info: MODIFIED 1-4 VDW PARAMETERS WILL BE USED
Info: DCD FILENAME           MD250K.dcd
Info: DCD FREQUENCY          500
Info: DCD FIRST STEP         500
Info: DCD FILE WILL CONTAIN UNIT CELL DATA
Info: XST FILENAME           MD250K.xst
Info: XST FREQUENCY          500
Info: NO VELOCITY DCD OUTPUT
Info: NO FORCE DCD OUTPUT
Info: OUTPUT FILENAME        MD250K
Info: BINARY OUTPUT FILES WILL BE USED
Info: RESTART FILENAME       MD250K.restart
Info: RESTART FREQUENCY      5000
Info: BINARY RESTART FILES WILL BE USED
Info: SWITCHING ACTIVE
Info: SWITCHING ON           10
Info: SWITCHING OFF          12
Info: PAIRLIST DISTANCE      14
Info: PAIRLIST SHRINK RATE   0.01
Info: PAIRLIST GROW RATE     0.01
Info: PAIRLIST TRIGGER       0.3
Info: PAIRLISTS PER CYCLE    2
Info: PAIRLISTS ENABLED
Info: MARGIN                 0
Info: HYDROGEN GROUP CUTOFF  2.5
Info: PATCH DIMENSION        16.5
Info: ENERGY OUTPUT STEPS    500
Info: CROSSTERM ENERGY INCLUDED IN DIHEDRAL
Info: TIMING OUTPUT STEPS    5000
Info: PRESSURE OUTPUT STEPS  500
Info: LANGEVIN DYNAMICS ACTIVE
Info: LANGEVIN TEMPERATURE   250
Info: LANGEVIN USING BBK INTEGRATOR
Info: LANGEVIN DAMPING COEFFICIENT IS 1 INVERSE PS
Info: LANGEVIN DYNAMICS NOT APPLIED TO HYDROGENS
Info: PARTICLE MESH EWALD (PME) ACTIVE
Info: PME TOLERANCE               1e-06
Info: PME EWALD COEFFICIENT       0.257952
Info: PME INTERPOLATION ORDER     4
Info: PME GRID DIMENSIONS         108 108 108
Info: PME MAXIMUM GRID SPACING    1
Info: FULL ELECTROSTATIC EVALUATION FREQUENCY      2
Info: USING VERLET I (r-RESPA) MTS SCHEME.
Info: C1 SPLITTING OF LONG RANGE ELECTROSTATICS
Info: PLACING ATOMS IN PATCHES BY HYDROGEN GROUPS
Info: RIGID BONDS TO HYDROGEN : ALL
Info:         ERROR TOLERANCE : 1e-08
Info:          MAX ITERATIONS : 100
Info: RIGID WATER USING SETTLE ALGORITHM
Info: RANDOM NUMBER SEED     1715361460
Info: USE HYDROGEN BONDS?    NO
Info: COORDINATE PDB         ../input/SiO2.pdb
Info: STRUCTURE FILE         ../input/SiO2.psf
Info: PARAMETER file: CHARMM format!
Info: PARAMETERS             ../input/SiO2.par
Info: USING ARITHMETIC MEAN TO COMBINE L-J SIGMA PARAMETERS
Info: SUMMARY OF PARAMETERS:
Info: 1 BONDS
Info: 0 ANGLES
Info: 0 DIHEDRAL
Info: 0 IMPROPER
Info: 0 CROSSTERM
Info: 2 VDW
Info: 0 VDW_PAIRS
Info: 0 NBTHOLE_PAIRS
Info: STRUCTURE SUMMARY:
Info: 768 ATOMS
Info: 0 BONDS
Info: 0 ANGLES
Info: 0 DIHEDRALS
Info: 0 IMPROPERS
Info: 0 CROSSTERMS
Info: 0 EXCLUSIONS
Info: 0 RIGID BONDS
Info: 2304 DEGREES OF FREEDOM
Info: 768 HYDROGEN GROUPS
Info: 1 ATOMS IN LARGEST HYDROGEN GROUP
Info: 768 MIGRATION GROUPS
Info: 1 ATOMS IN LARGEST MIGRATION GROUP
Info: TOTAL MASS = 15381.6 amu
Info: TOTAL CHARGE = 0 e
Info: MASS DENSITY = 0.0255423 g/cm^3
Info: ATOM DENSITY = 0.000768 atoms/A^3
Info: ADDED 0 IMPLICIT EXCLUSIONS
Info: NONBONDED TABLE R-SQUARED SPACING: 0.0625
Info: NONBONDED TABLE SIZE: 769 POINTS
Info: REMOVING COM VELOCITY 0.0276029 0.0135998 -0.189693
TCL: Minimizing for 1000 steps
ETITLE: TS BOND ANGLE DIHED IMPRP ELECT VDW BOUNDARY MISC KINETIC TOTAL TEMP POTENTIAL TOTAL3 TEMPAVG PRESSURE GPRESSURE VOLUME PRESSAVG GPRESSAVG
ENERGY: 0 0.0000 0.0000 0.0000 0.0000 -53892.4609 1661603.6966 0.0000 0.0000 0.0000 1607711.2357 0.0000 1607711.2357 1607711.2357 0.0000 463502.6809 463502.6809 1000000.0000 463502.6809 463502.6809
ENERGY: 200 0.0000 0.0000 0.0000 0.0000 -34344.4608 2884.0706 0.0000 0.0000 0.0000 -31460.3901 0.0000 -31460.3901 -31460.3901 0.0000 265.0033 265.0033 1000000.0000 265.0033 265.0033
ENERGY: 400 0.0000 0.0000 0.0000 0.0000 -35483.3920 2219.0015 0.0000 0.0000 0.0000 -33264.3905 0.0000 -33264.3905 -33264.3905 0.0000 19.6068 19.6068 1000000.0000 19.6068 19.6068
ENERGY: 600 0.0000 0.0000 0.0000 0.0000 -35847.4545 2190.9495 0.0000 0.0000 0.0000 -33656.5050 0.0000 -33656.5050 -33656.5050 0.0000 4.2849 4.2849 1000000.0000 4.2849 4.2849
ENERGY: 800 0.0000 0.0000 0.0000 0.0000 -35987.2650 2172.5169 0.0000 0.0000 0.0000 -33814.7481 0.0000 -33814.7481 -33814.7481 0.0000 -3.2723 -3.2723 1000000.0000 -3.2723 -3.2723
ENERGY: 1000 0.0000 0.0000 0.0000 0.0000 -36045.6804 2172.8530 0.0000 0.0000 0.0000 -33872.8275 0.0000 -33872.8275 -33872.8275 0.0000 -2.6519 -2.6519 1000000.0000 -2.6519 -2.6519
TCL: Running for 500000 steps
ETITLE: TS BOND ANGLE DIHED IMPRP ELECT VDW BOUNDARY MISC KINETIC TOTAL TEMP POTENTIAL TOTAL3 TEMPAVG PRESSURE GPRESSURE VOLUME PRESSAVG GPRESSAVG
ENERGY: 1000 0.0000 0.0000 0.0000 0.0000 -36045.6804 2172.8530 0.0000 0.0000 0.0000 -33872.8275 0.0000 -33872.8275 -33872.8403 0.0000 -2.6514 -2.6514 1000000.0000 -2.6514 -2.6514
ENERGY: 101000 0.0000 0.0000 0.0000 0.0000 -35696.8366 2102.2502 0.0000 0.0000 594.2287 -33000.3576 259.5742 -33594.5864 -33001.1160 245.9965 2.0352 2.0352 1000000.0000 -3.6918 -3.6918
ENERGY: 201000 0.0000 0.0000 0.0000 0.0000 -35758.9316 2165.9561 0.0000 0.0000 573.5143 -33019.4612 250.5256 -33592.9755 -33019.1701 252.9774 19.0237 19.0237 1000000.0000 1.6066 1.6066
ENERGY: 301000 0.0000 0.0000 0.0000 0.0000 -35751.8641 2168.9141 0.0000 0.0000 574.6863 -33008.2637 251.0376 -33582.9499 -33008.7517 253.6773 20.5154 20.5154 1000000.0000 0.6808 0.6808
ENERGY: 401000 0.0000 0.0000 0.0000 0.0000 -35775.9863 2175.2059 0.0000 0.0000 563.6049 -33037.1756 246.1970 -33600.7805 -33037.1950 243.0039 22.3971 22.3971 1000000.0000 1.0345 1.0345
ENERGY: 501000 0.0000 0.0000 0.0000 0.0000 -35668.6579 2066.0458 0.0000 0.0000 563.1036 -33039.5085 245.9780 -33602.6121 -33039.2076 248.2055 -9.4262 -9.4262 1000000.0000 0.7016 0.7016
